<?xml version="1.0" encoding="ISO-8859-1"?><pnml>
<net id="Net-One" type="P/T net">
<token id="Default" enabled="true" red="0" green="0" blue="0"/>
<labels x="403" y="177" width="58" height="41" border="false">
<text>Cesta do oblasti</text>
</labels>
<labels x="544" y="44" width="44" height="22" border="false">
<text>místo</text>
</labels>
<labels x="313" y="173" width="107" height="23" border="false">
<text>Nová Borovina</text>
</labels>
<labels x="120" y="84" width="47" height="23" border="false">
<text>P = 0</text>
</labels>
<labels x="274" y="159" width="47" height="23" border="false">
<text>P = 2</text>
</labels>
<labels x="230" y="274" width="106" height="38" border="false">
<text>Po&#269;et 1100l kontejner&#367;</text>
</labels>
<labels x="137" y="436" width="106" height="22" border="false">
<text>Popojezd k místu</text>
</labels>
<place id="P0">
<graphics>
<position x="30.0" y="120.0"/>
</graphics>
<name>
<value>P0</value>
<graphics>
<offset x="0.0" y="0.0"/>
</graphics>
</name>
<initialMarking>
<value>Default,5</value>
<graphics>
<offset x="0.0" y="0.0"/>
</graphics>
</initialMarking>
<capacity>
<value>0</value>
</capacity>
</place>
<place id="P1">
<graphics>
<position x="180.0" y="120.0"/>
</graphics>
<name>
<value>P1</value>
<graphics>
<offset x="15.0" y="-2.0"/>
</graphics>
</name>
<initialMarking>
<value>Default,0</value>
<graphics>
<offset x="0.0" y="0.0"/>
</graphics>
</initialMarking>
<capacity>
<value>0</value>
</capacity>
</place>
<place id="P10">
<graphics>
<position x="240.0" y="315.0"/>
</graphics>
<name>
<value>P10</value>
<graphics>
<offset x="0.0" y="0.0"/>
</graphics>
</name>
<initialMarking>
<value>Default,2</value>
<graphics>
<offset x="0.0" y="0.0"/>
</graphics>
</initialMarking>
<capacity>
<value>0</value>
</capacity>
</place>
<place id="P11">
<graphics>
<position x="585.0" y="135.0"/>
</graphics>
<name>
<value>P11</value>
<graphics>
<offset x="0.0" y="0.0"/>
</graphics>
</name>
<initialMarking>
<value>Default,0</value>
<graphics>
<offset x="0.0" y="0.0"/>
</graphics>
</initialMarking>
<capacity>
<value>0</value>
</capacity>
</place>
<place id="P12">
<graphics>
<position x="210.0" y="375.0"/>
</graphics>
<name>
<value>P12</value>
<graphics>
<offset x="0.0" y="0.0"/>
</graphics>
</name>
<initialMarking>
<value>Default,0</value>
<graphics>
<offset x="0.0" y="0.0"/>
</graphics>
</initialMarking>
<capacity>
<value>0</value>
</capacity>
</place>
<place id="P14">
<graphics>
<position x="345.0" y="270.0"/>
</graphics>
<name>
<value>P14</value>
<graphics>
<offset x="0.0" y="0.0"/>
</graphics>
</name>
<initialMarking>
<value>Default,11000</value>
<graphics>
<offset x="0.0" y="0.0"/>
</graphics>
</initialMarking>
<capacity>
<value>11000</value>
</capacity>
</place>
<place id="P15">
<graphics>
<position x="255.0" y="450.0"/>
</graphics>
<name>
<value>P15</value>
<graphics>
<offset x="0.0" y="0.0"/>
</graphics>
</name>
<initialMarking>
<value>Default,3</value>
<graphics>
<offset x="0.0" y="0.0"/>
</graphics>
</initialMarking>
<capacity>
<value>0</value>
</capacity>
</place>
<place id="P16">
<graphics>
<position x="360.0" y="360.0"/>
</graphics>
<name>
<value>P16</value>
<graphics>
<offset x="0.0" y="0.0"/>
</graphics>
</name>
<initialMarking>
<value>Default,0</value>
<graphics>
<offset x="0.0" y="0.0"/>
</graphics>
</initialMarking>
<capacity>
<value>0</value>
</capacity>
</place>
<place id="P17">
<graphics>
<position x="300.0" y="510.0"/>
</graphics>
<name>
<value>P17</value>
<graphics>
<offset x="0.0" y="0.0"/>
</graphics>
</name>
<initialMarking>
<value>Default,0</value>
<graphics>
<offset x="0.0" y="0.0"/>
</graphics>
</initialMarking>
<capacity>
<value>0</value>
</capacity>
</place>
<place id="P18">
<graphics>
<position x="435.0" y="510.0"/>
</graphics>
<name>
<value>P18</value>
<graphics>
<offset x="0.0" y="0.0"/>
</graphics>
</name>
<initialMarking>
<value>Default,0</value>
<graphics>
<offset x="0.0" y="0.0"/>
</graphics>
</initialMarking>
<capacity>
<value>0</value>
</capacity>
</place>
<place id="P19">
<graphics>
<position x="585.0" y="510.0"/>
</graphics>
<name>
<value>P19</value>
<graphics>
<offset x="0.0" y="0.0"/>
</graphics>
</name>
<initialMarking>
<value>Default,0</value>
<graphics>
<offset x="0.0" y="0.0"/>
</graphics>
</initialMarking>
<capacity>
<value>0</value>
</capacity>
</place>
<place id="P2">
<graphics>
<position x="90.0" y="180.0"/>
</graphics>
<name>
<value>P2</value>
<graphics>
<offset x="0.0" y="0.0"/>
</graphics>
</name>
<initialMarking>
<value>Default,0</value>
<graphics>
<offset x="0.0" y="0.0"/>
</graphics>
</initialMarking>
<capacity>
<value>0</value>
</capacity>
</place>
<place id="P20">
<graphics>
<position x="510.0" y="360.0"/>
</graphics>
<name>
<value>P20</value>
<graphics>
<offset x="0.0" y="0.0"/>
</graphics>
</name>
<initialMarking>
<value>Default,0</value>
<graphics>
<offset x="0.0" y="0.0"/>
</graphics>
</initialMarking>
<capacity>
<value>0</value>
</capacity>
</place>
<place id="P21">
<graphics>
<position x="495.0" y="405.0"/>
</graphics>
<name>
<value>P21</value>
<graphics>
<offset x="0.0" y="0.0"/>
</graphics>
</name>
<initialMarking>
<value>Default,0</value>
<graphics>
<offset x="0.0" y="0.0"/>
</graphics>
</initialMarking>
<capacity>
<value>0</value>
</capacity>
</place>
<place id="P22">
<graphics>
<position x="360.0" y="405.0"/>
</graphics>
<name>
<value>P22</value>
<graphics>
<offset x="0.0" y="0.0"/>
</graphics>
</name>
<initialMarking>
<value>Default,0</value>
<graphics>
<offset x="0.0" y="0.0"/>
</graphics>
</initialMarking>
<capacity>
<value>0</value>
</capacity>
</place>
<place id="P23">
<graphics>
<position x="330.0" y="195.0"/>
</graphics>
<name>
<value>P23</value>
<graphics>
<offset x="4.0" y="23.0"/>
</graphics>
</name>
<initialMarking>
<value>Default,0</value>
<graphics>
<offset x="0.0" y="0.0"/>
</graphics>
</initialMarking>
<capacity>
<value>0</value>
</capacity>
</place>
<place id="P24">
<graphics>
<position x="195.0" y="180.0"/>
</graphics>
<name>
<value>P24</value>
<graphics>
<offset x="0.0" y="0.0"/>
</graphics>
</name>
<initialMarking>
<value>Default,0</value>
<graphics>
<offset x="0.0" y="0.0"/>
</graphics>
</initialMarking>
<capacity>
<value>0</value>
</capacity>
</place>
<place id="P25">
<graphics>
<position x="450.0" y="195.0"/>
</graphics>
<name>
<value>P25</value>
<graphics>
<offset x="0.0" y="0.0"/>
</graphics>
</name>
<initialMarking>
<value>Default,0</value>
<graphics>
<offset x="0.0" y="0.0"/>
</graphics>
</initialMarking>
<capacity>
<value>0</value>
</capacity>
</place>
<place id="P5">
<graphics>
<position x="450.0" y="135.0"/>
</graphics>
<name>
<value>P5</value>
<graphics>
<offset x="4.0" y="0.0"/>
</graphics>
</name>
<initialMarking>
<value>Default,0</value>
<graphics>
<offset x="0.0" y="0.0"/>
</graphics>
</initialMarking>
<capacity>
<value>0</value>
</capacity>
</place>
<place id="P8">
<graphics>
<position x="525.0" y="60.0"/>
</graphics>
<name>
<value>P8</value>
<graphics>
<offset x="2.0" y="1.0"/>
</graphics>
</name>
<initialMarking>
<value>Default,1</value>
<graphics>
<offset x="0.0" y="0.0"/>
</graphics>
</initialMarking>
<capacity>
<value>0</value>
</capacity>
</place>
<place id="P9">
<graphics>
<position x="345.0" y="135.0"/>
</graphics>
<name>
<value>P9</value>
<graphics>
<offset x="0.0" y="0.0"/>
</graphics>
</name>
<initialMarking>
<value>Default,0</value>
<graphics>
<offset x="0.0" y="0.0"/>
</graphics>
</initialMarking>
<capacity>
<value>0</value>
</capacity>
</place>
<transition id="T0">
<graphics>
<position x="105.0" y="120.0"/>
</graphics>
<name>
<value>T0</value>
<graphics>
<offset x="-5.0" y="35.0"/>
</graphics>
</name>
<orientation>
<value>0</value>
</orientation>
<rate>
<value>1.0</value>
</rate>
<timed>
<value>false</value>
</timed>
<infiniteServer>
<value>false</value>
</infiniteServer>
<priority>
<value>1</value>
</priority>
</transition>
<transition id="T10">
<graphics>
<position x="150.0" y="375.0"/>
</graphics>
<name>
<value>T10</value>
<graphics>
<offset x="12.0" y="37.0"/>
</graphics>
</name>
<orientation>
<value>0</value>
</orientation>
<rate>
<value>1.0</value>
</rate>
<timed>
<value>true</value>
</timed>
<infiniteServer>
<value>false</value>
</infiniteServer>
<priority>
<value>1</value>
</priority>
</transition>
<transition id="T11">
<graphics>
<position x="270.0" y="360.0"/>
</graphics>
<name>
<value>T11</value>
<graphics>
<offset x="-5.0" y="35.0"/>
</graphics>
</name>
<orientation>
<value>0</value>
</orientation>
<rate>
<value>1.0</value>
</rate>
<timed>
<value>false</value>
</timed>
<infiniteServer>
<value>false</value>
</infiniteServer>
<priority>
<value>1</value>
</priority>
</transition>
<transition id="T13">
<graphics>
<position x="270.0" y="405.0"/>
</graphics>
<name>
<value>T13</value>
<graphics>
<offset x="5.0" y="32.0"/>
</graphics>
</name>
<orientation>
<value>0</value>
</orientation>
<rate>
<value>1.0</value>
</rate>
<timed>
<value>false</value>
</timed>
<infiniteServer>
<value>false</value>
</infiniteServer>
<priority>
<value>1</value>
</priority>
</transition>
<transition id="T15">
<graphics>
<position x="225.0" y="525.0"/>
</graphics>
<name>
<value>T15</value>
<graphics>
<offset x="-5.0" y="35.0"/>
</graphics>
</name>
<orientation>
<value>0</value>
</orientation>
<rate>
<value>1.0</value>
</rate>
<timed>
<value>false</value>
</timed>
<infiniteServer>
<value>false</value>
</infiniteServer>
<priority>
<value>1</value>
</priority>
</transition>
<transition id="T16">
<graphics>
<position x="360.0" y="510.0"/>
</graphics>
<name>
<value>T16</value>
<graphics>
<offset x="-5.0" y="35.0"/>
</graphics>
</name>
<orientation>
<value>0</value>
</orientation>
<rate>
<value>1.0</value>
</rate>
<timed>
<value>true</value>
</timed>
<infiniteServer>
<value>false</value>
</infiniteServer>
<priority>
<value>1</value>
</priority>
</transition>
<transition id="T17">
<graphics>
<position x="525.0" y="510.0"/>
</graphics>
<name>
<value>T17</value>
<graphics>
<offset x="6.0" y="38.0"/>
</graphics>
</name>
<orientation>
<value>0</value>
</orientation>
<rate>
<value>1.0</value>
</rate>
<timed>
<value>true</value>
</timed>
<infiniteServer>
<value>false</value>
</infiniteServer>
<priority>
<value>1</value>
</priority>
</transition>
<transition id="T18">
<graphics>
<position x="630.0" y="510.0"/>
</graphics>
<name>
<value>T18</value>
<graphics>
<offset x="-5.0" y="35.0"/>
</graphics>
</name>
<orientation>
<value>0</value>
</orientation>
<rate>
<value>1.0</value>
</rate>
<timed>
<value>true</value>
</timed>
<infiniteServer>
<value>false</value>
</infiniteServer>
<priority>
<value>1</value>
</priority>
</transition>
<transition id="T19">
<graphics>
<position x="570.0" y="360.0"/>
</graphics>
<name>
<value>T19</value>
<graphics>
<offset x="-5.0" y="35.0"/>
</graphics>
</name>
<orientation>
<value>0</value>
</orientation>
<rate>
<value>1.0</value>
</rate>
<timed>
<value>true</value>
</timed>
<infiniteServer>
<value>false</value>
</infiniteServer>
<priority>
<value>1</value>
</priority>
</transition>
<transition id="T20">
<graphics>
<position x="570.0" y="405.0"/>
</graphics>
<name>
<value>T20</value>
<graphics>
<offset x="-5.0" y="35.0"/>
</graphics>
</name>
<orientation>
<value>0</value>
</orientation>
<rate>
<value>1.0</value>
</rate>
<timed>
<value>true</value>
</timed>
<infiniteServer>
<value>false</value>
</infiniteServer>
<priority>
<value>1</value>
</priority>
</transition>
<transition id="T21">
<graphics>
<position x="435.0" y="360.0"/>
</graphics>
<name>
<value>T21</value>
<graphics>
<offset x="-5.0" y="35.0"/>
</graphics>
</name>
<orientation>
<value>0</value>
</orientation>
<rate>
<value>1.0</value>
</rate>
<timed>
<value>false</value>
</timed>
<infiniteServer>
<value>false</value>
</infiniteServer>
<priority>
<value>1</value>
</priority>
</transition>
<transition id="T22">
<graphics>
<position x="435.0" y="405.0"/>
</graphics>
<name>
<value>T22</value>
<graphics>
<offset x="-5.0" y="35.0"/>
</graphics>
</name>
<orientation>
<value>0</value>
</orientation>
<rate>
<value>1.0</value>
</rate>
<timed>
<value>false</value>
</timed>
<infiniteServer>
<value>false</value>
</infiniteServer>
<priority>
<value>1</value>
</priority>
</transition>
<transition id="T23">
<graphics>
<position x="150.0" y="480.0"/>
</graphics>
<name>
<value>T23</value>
<graphics>
<offset x="-5.0" y="35.0"/>
</graphics>
</name>
<orientation>
<value>0</value>
</orientation>
<rate>
<value>1.0</value>
</rate>
<timed>
<value>false</value>
</timed>
<infiniteServer>
<value>false</value>
</infiniteServer>
<priority>
<value>1</value>
</priority>
</transition>
<transition id="T24">
<graphics>
<position x="225.0" y="495.0"/>
</graphics>
<name>
<value>T24</value>
<graphics>
<offset x="-5.0" y="35.0"/>
</graphics>
</name>
<orientation>
<value>0</value>
</orientation>
<rate>
<value>1.0</value>
</rate>
<timed>
<value>false</value>
</timed>
<infiniteServer>
<value>false</value>
</infiniteServer>
<priority>
<value>1</value>
</priority>
</transition>
<transition id="T25">
<graphics>
<position x="180.0" y="510.0"/>
</graphics>
<name>
<value>T25</value>
<graphics>
<offset x="-5.0" y="35.0"/>
</graphics>
</name>
<orientation>
<value>0</value>
</orientation>
<rate>
<value>1.0</value>
</rate>
<timed>
<value>false</value>
</timed>
<infiniteServer>
<value>false</value>
</infiniteServer>
<priority>
<value>1</value>
</priority>
</transition>
<transition id="T26">
<graphics>
<position x="240.0" y="195.0"/>
</graphics>
<name>
<value>T26</value>
<graphics>
<offset x="-5.0" y="35.0"/>
</graphics>
</name>
<orientation>
<value>0</value>
</orientation>
<rate>
<value>1.0</value>
</rate>
<timed>
<value>true</value>
</timed>
<infiniteServer>
<value>false</value>
</infiniteServer>
<priority>
<value>1</value>
</priority>
</transition>
<transition id="T27">
<graphics>
<position x="390.0" y="195.0"/>
</graphics>
<name>
<value>T27</value>
<graphics>
<offset x="-5.0" y="35.0"/>
</graphics>
</name>
<orientation>
<value>0</value>
</orientation>
<rate>
<value>1.0</value>
</rate>
<timed>
<value>true</value>
</timed>
<infiniteServer>
<value>false</value>
</infiniteServer>
<priority>
<value>1</value>
</priority>
</transition>
<transition id="T28">
<graphics>
<position x="150.0" y="195.0"/>
</graphics>
<name>
<value>T28</value>
<graphics>
<offset x="-5.0" y="35.0"/>
</graphics>
</name>
<orientation>
<value>0</value>
</orientation>
<rate>
<value>1.0</value>
</rate>
<timed>
<value>true</value>
</timed>
<infiniteServer>
<value>false</value>
</infiniteServer>
<priority>
<value>1</value>
</priority>
</transition>
<transition id="T3">
<graphics>
<position x="45.0" y="180.0"/>
</graphics>
<name>
<value>T3</value>
<graphics>
<offset x="9.0" y="30.0"/>
</graphics>
</name>
<orientation>
<value>0</value>
</orientation>
<rate>
<value>1.0</value>
</rate>
<timed>
<value>true</value>
</timed>
<infiniteServer>
<value>false</value>
</infiniteServer>
<priority>
<value>1</value>
</priority>
</transition>
<transition id="T4">
<graphics>
<position x="405.0" y="135.0"/>
</graphics>
<name>
<value>T4</value>
<graphics>
<offset x="10.0" y="28.0"/>
</graphics>
</name>
<orientation>
<value>0</value>
</orientation>
<rate>
<value>1.0</value>
</rate>
<timed>
<value>true</value>
</timed>
<infiniteServer>
<value>false</value>
</infiniteServer>
<priority>
<value>1</value>
</priority>
</transition>
<transition id="T7">
<graphics>
<position x="525.0" y="135.0"/>
</graphics>
<name>
<value>T7</value>
<graphics>
<offset x="7.0" y="33.0"/>
</graphics>
</name>
<orientation>
<value>0</value>
</orientation>
<rate>
<value>1.0</value>
</rate>
<timed>
<value>false</value>
</timed>
<infiniteServer>
<value>false</value>
</infiniteServer>
<priority>
<value>2</value>
</priority>
</transition>
<transition id="T8">
<graphics>
<position x="525.0" y="180.0"/>
</graphics>
<name>
<value>T8</value>
<graphics>
<offset x="-5.0" y="35.0"/>
</graphics>
</name>
<orientation>
<value>0</value>
</orientation>
<rate>
<value>1.0</value>
</rate>
<timed>
<value>false</value>
</timed>
<infiniteServer>
<value>false</value>
</infiniteServer>
<priority>
<value>1</value>
</priority>
</transition>
<transition id="T9">
<graphics>
<position x="270.0" y="120.0"/>
</graphics>
<name>
<value>T9</value>
<graphics>
<offset x="19.0" y="42.0"/>
</graphics>
</name>
<orientation>
<value>0</value>
</orientation>
<rate>
<value>1.0</value>
</rate>
<timed>
<value>false</value>
</timed>
<infiniteServer>
<value>false</value>
</infiniteServer>
<priority>
<value>13</value>
</priority>
</transition>
<arc id="P0 to T0" source="P0" target="T0">
<graphics/>
<inscription>
<value>Default,1</value>
<graphics/>
</inscription>
<tagged>
<value>false</value>
</tagged>
<arcpath id="000" x="56" y="132" curvePoint="false"/>
<arcpath id="001" x="111" y="132" curvePoint="false"/>
<type value="normal"/>
</arc>
<arc id="P10 to T11" source="P10" target="T11">
<graphics/>
<inscription>
<value>Default,1</value>
<graphics/>
</inscription>
<tagged>
<value>false</value>
</tagged>
<arcpath id="000" x="259" y="340" curvePoint="false"/>
<arcpath id="001" x="277" y="367" curvePoint="false"/>
<type value="normal"/>
</arc>
<arc id="P11 to T10" source="P11" target="T10">
<graphics/>
<inscription>
<value>Default,1</value>
<graphics/>
</inscription>
<tagged>
<value>false</value>
</tagged>
<arcpath id="000" x="611" y="145" curvePoint="false"/>
<arcpath id="001" x="674" y="141" curvePoint="false"/>
<arcpath id="002" x="674" y="231" curvePoint="false"/>
<arcpath id="003" x="14" y="234" curvePoint="false"/>
<arcpath id="004" x="21" y="391" curvePoint="false"/>
<arcpath id="005" x="156" y="387" curvePoint="false"/>
<type value="normal"/>
</arc>
<arc id="P12 to T11" source="P12" target="T11">
<graphics/>
<inscription>
<value>Default,1</value>
<graphics/>
</inscription>
<tagged>
<value>false</value>
</tagged>
<arcpath id="000" x="236" y="384" curvePoint="false"/>
<arcpath id="001" x="276" y="377" curvePoint="false"/>
<type value="normal"/>
</arc>
<arc id="P12 to T13" source="P12" target="T13">
<graphics/>
<inscription>
<value>Default,1</value>
<graphics/>
</inscription>
<tagged>
<value>false</value>
</tagged>
<arcpath id="000" x="235" y="394" curvePoint="false"/>
<arcpath id="001" x="276" y="417" curvePoint="false"/>
<type value="normal"/>
</arc>
<arc id="P12 to T23" source="P12" target="T23">
<graphics/>
<inscription>
<value>Default,1</value>
<graphics/>
</inscription>
<tagged>
<value>false</value>
</tagged>
<arcpath id="000" x="213" y="399" curvePoint="false"/>
<arcpath id="001" x="162" y="477" curvePoint="false"/>
<type value="normal"/>
</arc>
<arc id="P12 to T25" source="P12" target="T25">
<graphics/>
<inscription>
<value>Default,1</value>
<graphics/>
</inscription>
<tagged>
<value>false</value>
</tagged>
<arcpath id="000" x="218" y="401" curvePoint="false"/>
<arcpath id="001" x="192" y="507" curvePoint="false"/>
<type value="normal"/>
</arc>
<arc id="P14 to T21" source="P14" target="T21">
<graphics/>
<inscription>
<value>Default,1100</value>
<graphics/>
</inscription>
<tagged>
<value>false</value>
</tagged>
<arcpath id="000" x="367" y="292" curvePoint="false"/>
<arcpath id="001" x="442" y="367" curvePoint="false"/>
<type value="normal"/>
</arc>
<arc id="P14 to T22" source="P14" target="T22">
<graphics/>
<inscription>
<value>Default,240</value>
<graphics/>
</inscription>
<tagged>
<value>false</value>
</tagged>
<arcpath id="000" x="364" y="294" curvePoint="false"/>
<arcpath id="001" x="442" y="412" curvePoint="false"/>
<type value="normal"/>
</arc>
<arc id="P14 to T23" source="P14" target="T23">
<graphics/>
<inscription>
<value>Default,120</value>
<graphics/>
</inscription>
<tagged>
<value>false</value>
</tagged>
<arcpath id="000" x="342" y="284" curvePoint="false"/>
<arcpath id="001" x="66" y="339" curvePoint="false"/>
<arcpath id="002" x="156" y="492" curvePoint="false"/>
<type value="normal"/>
</arc>
<arc id="P15 to T13" source="P15" target="T13">
<graphics/>
<inscription>
<value>Default,1</value>
<graphics/>
</inscription>
<tagged>
<value>false</value>
</tagged>
<arcpath id="000" x="273" y="448" curvePoint="false"/>
<arcpath id="001" x="282" y="432" curvePoint="false"/>
<type value="normal"/>
</arc>
<arc id="P16 to T15" source="P16" target="T15">
<graphics/>
<inscription>
<value>Default,1</value>
<graphics/>
</inscription>
<tagged>
<value>false</value>
</tagged>
<arcpath id="000" x="384" y="381" curvePoint="false"/>
<arcpath id="001" x="404" y="396" curvePoint="false"/>
<arcpath id="002" x="396" y="471" curvePoint="false"/>
<arcpath id="003" x="242" y="532" curvePoint="false"/>
<type value="normal"/>
</arc>
<arc id="P16 to T21" source="P16" target="T21">
<graphics/>
<inscription>
<value>Default,1</value>
<graphics/>
</inscription>
<tagged>
<value>false</value>
</tagged>
<arcpath id="000" x="386" y="373" curvePoint="false"/>
<arcpath id="001" x="441" y="377" curvePoint="false"/>
<type value="normal"/>
</arc>
<arc id="P17 to T16" source="P17" target="T16">
<graphics/>
<inscription>
<value>Default,1</value>
<graphics/>
</inscription>
<tagged>
<value>false</value>
</tagged>
<arcpath id="000" x="326" y="522" curvePoint="false"/>
<arcpath id="001" x="366" y="522" curvePoint="false"/>
<type value="normal"/>
</arc>
<arc id="P18 to T17" source="P18" target="T17">
<graphics/>
<inscription>
<value>Default,1</value>
<graphics/>
</inscription>
<tagged>
<value>false</value>
</tagged>
<arcpath id="000" x="461" y="522" curvePoint="false"/>
<arcpath id="001" x="531" y="522" curvePoint="false"/>
<type value="normal"/>
</arc>
<arc id="P19 to T18" source="P19" target="T18">
<graphics/>
<inscription>
<value>Default,1</value>
<graphics/>
</inscription>
<tagged>
<value>false</value>
</tagged>
<arcpath id="000" x="611" y="522" curvePoint="false"/>
<arcpath id="001" x="636" y="522" curvePoint="false"/>
<type value="normal"/>
</arc>
<arc id="P1 to T9" source="P1" target="T9">
<graphics/>
<inscription>
<value>Default,1</value>
<graphics/>
</inscription>
<tagged>
<value>false</value>
</tagged>
<arcpath id="000" x="206" y="132" curvePoint="false"/>
<arcpath id="001" x="276" y="132" curvePoint="false"/>
<type value="normal"/>
</arc>
<arc id="P20 to T19" source="P20" target="T19">
<graphics/>
<inscription>
<value>Default,1</value>
<graphics/>
</inscription>
<tagged>
<value>false</value>
</tagged>
<arcpath id="000" x="536" y="372" curvePoint="false"/>
<arcpath id="001" x="576" y="372" curvePoint="false"/>
<type value="normal"/>
</arc>
<arc id="P21 to T20" source="P21" target="T20">
<graphics/>
<inscription>
<value>Default,1</value>
<graphics/>
</inscription>
<tagged>
<value>false</value>
</tagged>
<arcpath id="000" x="521" y="417" curvePoint="false"/>
<arcpath id="001" x="576" y="417" curvePoint="false"/>
<type value="normal"/>
</arc>
<arc id="P22 to T22" source="P22" target="T22">
<graphics/>
<inscription>
<value>Default,1</value>
<graphics/>
</inscription>
<tagged>
<value>false</value>
</tagged>
<arcpath id="000" x="386" y="418" curvePoint="false"/>
<arcpath id="001" x="441" y="422" curvePoint="false"/>
<type value="normal"/>
</arc>
<arc id="P22 to T24" source="P22" target="T24">
<graphics/>
<inscription>
<value>Default,1</value>
<graphics/>
</inscription>
<tagged>
<value>false</value>
</tagged>
<arcpath id="000" x="359" y="425" curvePoint="false"/>
<arcpath id="001" x="242" y="502" curvePoint="false"/>
<type value="normal"/>
</arc>
<arc id="P23 to T26" source="P23" target="T26">
<graphics/>
<inscription>
<value>Default,1</value>
<graphics/>
</inscription>
<tagged>
<value>false</value>
</tagged>
<arcpath id="000" x="327" y="207" curvePoint="false"/>
<arcpath id="001" x="256" y="207" curvePoint="false"/>
<type value="normal"/>
</arc>
<arc id="P24 to T28" source="P24" target="T28">
<graphics/>
<inscription>
<value>Default,1</value>
<graphics/>
</inscription>
<tagged>
<value>false</value>
</tagged>
<arcpath id="000" x="192" y="197" curvePoint="false"/>
<arcpath id="001" x="166" y="207" curvePoint="false"/>
<type value="normal"/>
</arc>
<arc id="P25 to T27" source="P25" target="T27">
<graphics/>
<inscription>
<value>Default,1</value>
<graphics/>
</inscription>
<tagged>
<value>false</value>
</tagged>
<arcpath id="000" x="447" y="207" curvePoint="false"/>
<arcpath id="001" x="406" y="207" curvePoint="false"/>
<type value="normal"/>
</arc>
<arc id="P2 to T0" source="P2" target="T0">
<graphics/>
<inscription>
<value>Default,1</value>
<graphics/>
</inscription>
<tagged>
<value>false</value>
</tagged>
<arcpath id="000" x="106" y="177" curvePoint="false"/>
<arcpath id="001" x="117" y="147" curvePoint="false"/>
<type value="normal"/>
</arc>
<arc id="P5 to T7" source="P5" target="T7">
<graphics/>
<inscription>
<value>Default,1</value>
<graphics/>
</inscription>
<tagged>
<value>false</value>
</tagged>
<arcpath id="000" x="476" y="147" curvePoint="false"/>
<arcpath id="001" x="531" y="147" curvePoint="false"/>
<type value="normal"/>
</arc>
<arc id="P5 to T8" source="P5" target="T8">
<graphics/>
<inscription>
<value>Default,1</value>
<graphics/>
</inscription>
<tagged>
<value>false</value>
</tagged>
<arcpath id="000" x="474" y="155" curvePoint="false"/>
<arcpath id="001" x="532" y="187" curvePoint="false"/>
<type value="normal"/>
</arc>
<arc id="P8 to T7" source="P8" target="T7">
<graphics/>
<inscription>
<value>Default,1</value>
<graphics/>
</inscription>
<tagged>
<value>false</value>
</tagged>
<arcpath id="000" x="537" y="86" curvePoint="false"/>
<arcpath id="001" x="537" y="132" curvePoint="false"/>
<type value="normal"/>
</arc>
<arc id="P8 to T9" source="P8" target="T9">
<graphics/>
<inscription>
<value>Default,1</value>
<graphics/>
</inscription>
<tagged>
<value>false</value>
</tagged>
<arcpath id="000" x="522" y="70" curvePoint="false"/>
<arcpath id="001" x="390" y="60" curvePoint="false"/>
<arcpath id="002" x="287" y="124" curvePoint="false"/>
<type value="normal"/>
</arc>
<arc id="P9 to T4" source="P9" target="T4">
<graphics/>
<inscription>
<value>Default,1</value>
<graphics/>
</inscription>
<tagged>
<value>false</value>
</tagged>
<arcpath id="000" x="371" y="147" curvePoint="false"/>
<arcpath id="001" x="411" y="147" curvePoint="false"/>
<type value="normal"/>
</arc>
<arc id="T0 to P1" source="T0" target="P1">
<graphics/>
<inscription>
<value>Default,1</value>
<graphics/>
</inscription>
<tagged>
<value>false</value>
</tagged>
<arcpath id="000" x="121" y="132" curvePoint="false"/>
<arcpath id="001" x="177" y="132" curvePoint="false"/>
<type value="normal"/>
</arc>
<arc id="T10 to P12" source="T10" target="P12">
<graphics/>
<inscription>
<value>Default,1</value>
<graphics/>
</inscription>
<tagged>
<value>false</value>
</tagged>
<arcpath id="000" x="166" y="387" curvePoint="false"/>
<arcpath id="001" x="207" y="387" curvePoint="false"/>
<type value="normal"/>
</arc>
<arc id="T11 to P16" source="T11" target="P16">
<graphics/>
<inscription>
<value>Default,1</value>
<graphics/>
</inscription>
<tagged>
<value>false</value>
</tagged>
<arcpath id="000" x="286" y="372" curvePoint="false"/>
<arcpath id="001" x="357" y="372" curvePoint="false"/>
<type value="normal"/>
</arc>
<arc id="T13 to P22" source="T13" target="P22">
<graphics/>
<inscription>
<value>Default,1</value>
<graphics/>
</inscription>
<tagged>
<value>false</value>
</tagged>
<arcpath id="000" x="286" y="417" curvePoint="false"/>
<arcpath id="001" x="357" y="417" curvePoint="false"/>
<type value="normal"/>
</arc>
<arc id="T15 to P17" source="T15" target="P17">
<graphics/>
<inscription>
<value>Default,1</value>
<graphics/>
</inscription>
<tagged>
<value>false</value>
</tagged>
<arcpath id="000" x="241" y="542" curvePoint="false"/>
<arcpath id="001" x="297" y="526" curvePoint="false"/>
<type value="normal"/>
</arc>
<arc id="T16 to P18" source="T16" target="P18">
<graphics/>
<inscription>
<value>Default,1</value>
<graphics/>
</inscription>
<tagged>
<value>false</value>
</tagged>
<arcpath id="000" x="376" y="522" curvePoint="false"/>
<arcpath id="001" x="432" y="522" curvePoint="false"/>
<type value="normal"/>
</arc>
<arc id="T17 to P19" source="T17" target="P19">
<graphics/>
<inscription>
<value>Default,1</value>
<graphics/>
</inscription>
<tagged>
<value>false</value>
</tagged>
<arcpath id="000" x="541" y="522" curvePoint="false"/>
<arcpath id="001" x="582" y="522" curvePoint="false"/>
<type value="normal"/>
</arc>
<arc id="T18 to P5" source="T18" target="P5">
<graphics/>
<inscription>
<value>Default,1</value>
<graphics/>
</inscription>
<tagged>
<value>false</value>
</tagged>
<arcpath id="000" x="646" y="522" curvePoint="false"/>
<arcpath id="001" x="696" y="526" curvePoint="false"/>
<arcpath id="002" x="696" y="26" curvePoint="false"/>
<arcpath id="003" x="466" y="27" curvePoint="false"/>
<arcpath id="004" x="462" y="132" curvePoint="false"/>
<type value="normal"/>
</arc>
<arc id="T19 to P12" source="T19" target="P12">
<graphics/>
<inscription>
<value>Default,1</value>
<graphics/>
</inscription>
<tagged>
<value>false</value>
</tagged>
<arcpath id="000" x="586" y="372" curvePoint="false"/>
<arcpath id="001" x="621" y="369" curvePoint="false"/>
<arcpath id="002" x="621" y="249" curvePoint="false"/>
<arcpath id="003" x="186" y="249" curvePoint="false"/>
<arcpath id="004" x="186" y="339" curvePoint="false"/>
<arcpath id="005" x="213" y="375" curvePoint="false"/>
<type value="normal"/>
</arc>
<arc id="T20 to P12" source="T20" target="P12">
<graphics/>
<inscription>
<value>Default,1</value>
<graphics/>
</inscription>
<tagged>
<value>false</value>
</tagged>
<arcpath id="000" x="586" y="417" curvePoint="false"/>
<arcpath id="001" x="636" y="414" curvePoint="false"/>
<arcpath id="002" x="636" y="241" curvePoint="false"/>
<arcpath id="003" x="156" y="241" curvePoint="false"/>
<arcpath id="004" x="156" y="339" curvePoint="false"/>
<arcpath id="005" x="209" y="378" curvePoint="false"/>
<type value="normal"/>
</arc>
<arc id="T21 to P20" source="T21" target="P20">
<graphics/>
<inscription>
<value>Default,1</value>
<graphics/>
</inscription>
<tagged>
<value>false</value>
</tagged>
<arcpath id="000" x="451" y="372" curvePoint="false"/>
<arcpath id="001" x="507" y="372" curvePoint="false"/>
<type value="normal"/>
</arc>
<arc id="T22 to P21" source="T22" target="P21">
<graphics/>
<inscription>